<?xml version="1.0" encoding="UTF-8"?>

<!-- generated on 2024-06-25 17:27:39 by Eclipse SUMO netedit Version 1.19.0
<configuration xmlns:xsi="http://www.w3.org/2001/XMLSchema-instance" xsi:noNamespaceSchemaLocation="http://sumo.dlr.de/xsd/neteditConfiguration.xsd">

    <input>
        <sumocfg-file value="/Users/yuyanlin/Desktop/AdaptiveTrafficLightCAVsControl/SUMO simulation/oneJuncScen.sumocfg"/>
        <sumo-net-file value="/Users/yuyanlin/Desktop/AdaptiveTrafficLightCAVsControl/SUMO simulation/oneJuncScen.net.xml"/>
    </input>

    <output>
        <output-file value="/Users/yuyanlin/Desktop/AdaptiveTrafficLightCAVsControl/SUMO simulation/oneJuncScen.net.xml"/>
    </output>

    <processing>
        <offset.disable-normalization value="true"/>
    </processing>

    <junctions>
        <no-turnarounds value="true"/>
    </junctions>

    <netedit>
        <new-network value="false"/>
    </netedit>

</configuration>
-->

<net version="1.16" junctionCornerDetail="5" limitTurnSpeed="5.50" xmlns:xsi="http://www.w3.org/2001/XMLSchema-instance" xsi:noNamespaceSchemaLocation="http://sumo.dlr.de/xsd/net_file.xsd">

    <location netOffset="0.00,0.00" convBoundary="-100.00,-200.12,300.12,200.12" origBoundary="10000000000.00,10000000000.00,-10000000000.00,-10000000000.00" projParameter="!"/>

    <edge id=":J4_0" function="internal">
        <lane id=":J4_0_0" index="0" speed="6.51" length="9.03" shape="92.00,13.60 91.65,11.15 90.60,9.40 88.85,8.35 86.40,8.00"/>
    </edge>
    <edge id=":J4_1" function="internal">
        <lane id=":J4_1_0" index="0" speed="13.89" length="27.20" shape="95.20,13.60 95.20,-13.60"/>
    </edge>
    <edge id=":J4_2" function="internal">
        <lane id=":J4_2_0" index="0" speed="10.36" length="12.07" shape="98.40,13.60 99.35,6.95 102.10,2.36"/>
    </edge>
    <edge id=":J4_12" function="internal">
        <lane id=":J4_12_0" index="0" speed="10.36" length="12.44" shape="102.10,2.36 102.20,2.20 106.95,-0.65 113.60,-1.60"/>
    </edge>
    <edge id=":J4_3" function="internal">
        <lane id=":J4_3_0" index="0" speed="6.51" length="9.03" shape="113.60,8.00 111.15,8.35 109.40,9.40 108.35,11.15 108.00,13.60"/>
    </edge>
    <edge id=":J4_4" function="internal">
        <lane id=":J4_4_0" index="0" speed="13.89" length="27.20" shape="113.60,4.80 86.40,4.80"/>
    </edge>
    <edge id=":J4_5" function="internal">
        <lane id=":J4_5_0" index="0" speed="10.36" length="12.07" shape="113.60,1.60 106.95,0.65 102.36,-2.10"/>
    </edge>
    <edge id=":J4_13" function="internal">
        <lane id=":J4_13_0" index="0" speed="10.36" length="12.44" shape="102.36,-2.10 102.20,-2.20 99.35,-6.95 98.40,-13.60"/>
    </edge>
    <edge id=":J4_6" function="internal">
        <lane id=":J4_6_0" index="0" speed="6.51" length="9.03" shape="108.00,-13.60 108.35,-11.15 109.40,-9.40 111.15,-8.35 113.60,-8.00"/>
    </edge>
    <edge id=":J4_7" function="internal">
        <lane id=":J4_7_0" index="0" speed="13.89" length="27.20" shape="104.80,-13.60 104.80,13.60"/>
    </edge>
    <edge id=":J4_8" function="internal">
        <lane id=":J4_8_0" index="0" speed="10.36" length="12.07" shape="101.60,-13.60 100.65,-6.95 97.90,-2.36"/>
    </edge>
    <edge id=":J4_14" function="internal">
        <lane id=":J4_14_0" index="0" speed="10.36" length="12.44" shape="97.90,-2.36 97.80,-2.20 93.05,0.65 86.40,1.60"/>
    </edge>
    <edge id=":J4_9" function="internal">
        <lane id=":J4_9_0" index="0" speed="6.51" length="9.03" shape="86.40,-8.00 88.85,-8.35 90.60,-9.40 91.65,-11.15 92.00,-13.60"/>
    </edge>
    <edge id=":J4_10" function="internal">
        <lane id=":J4_10_0" index="0" speed="13.89" length="27.20" shape="86.40,-4.80 113.60,-4.80"/>
    </edge>
    <edge id=":J4_11" function="internal">
        <lane id=":J4_11_0" index="0" speed="10.36" length="12.07" shape="86.40,-1.60 93.05,-0.65 97.64,2.10"/>
    </edge>
    <edge id=":J4_15" function="internal">
        <lane id=":J4_15_0" index="0" speed="10.36" length="12.45" shape="97.64,2.10 97.80,2.20 100.65,6.95 101.60,13.60"/>
    </edge>

    <edge id="-E1" from="J4" to="J3" priority="-1" spreadType="center" shape="100.12,4.80 -100.00,4.80">
        <lane id="-E1_0" index="0" speed="13.89" length="186.40" shape="86.40,8.00 -100.00,8.00"/>
        <lane id="-E1_1" index="1" speed="13.89" length="186.40" shape="86.40,4.80 -100.00,4.80"/>
        <lane id="-E1_2" index="2" speed="13.89" length="186.40" shape="86.40,1.60 -100.00,1.60"/>
    </edge>
    <edge id="-E2" from="J5" to="J4" priority="-1" spreadType="center" shape="300.12,4.80 100.00,4.80">
        <lane id="-E2_0" index="0" speed="13.89" length="186.40" shape="300.00,8.00 113.60,8.00"/>
        <lane id="-E2_1" index="1" speed="13.89" length="186.40" shape="300.00,4.80 113.60,4.80"/>
        <lane id="-E2_2" index="2" speed="13.89" length="186.40" shape="300.00,1.60 113.60,1.60"/>
    </edge>
    <edge id="-E3" from="J4" to="J6" priority="-1" spreadType="center" shape="104.80,0.00 104.80,200.12">
        <lane id="-E3_0" index="0" speed="13.89" length="186.40" shape="108.00,13.60 108.00,200.00"/>
        <lane id="-E3_1" index="1" speed="13.89" length="186.40" shape="104.80,13.60 104.80,200.00"/>
        <lane id="-E3_2" index="2" speed="13.89" length="186.40" shape="101.60,13.60 101.60,200.00"/>
    </edge>
    <edge id="-E4" from="J7" to="J4" priority="-1" spreadType="center" shape="104.80,-200.12 104.80,-0.00">
        <lane id="-E4_0" index="0" speed="13.89" length="186.40" shape="108.00,-200.00 108.00,-13.60"/>
        <lane id="-E4_1" index="1" speed="13.89" length="186.40" shape="104.80,-200.00 104.80,-13.60"/>
        <lane id="-E4_2" index="2" speed="13.89" length="186.40" shape="101.60,-200.00 101.60,-13.60"/>
    </edge>
    <edge id="E1" from="J3" to="J4" priority="-1" spreadType="center" shape="-100.00,-4.80 100.12,-4.80">
        <lane id="E1_0" index="0" speed="13.89" length="186.40" shape="-100.00,-8.00 86.40,-8.00"/>
        <lane id="E1_1" index="1" speed="13.89" length="186.40" shape="-100.00,-4.80 86.40,-4.80"/>
        <lane id="E1_2" index="2" speed="13.89" length="186.40" shape="-100.00,-1.60 86.40,-1.60"/>
    </edge>
    <edge id="E2" from="J4" to="J5" priority="-1" spreadType="center" shape="100.00,-4.80 300.12,-4.80">
        <lane id="E2_0" index="0" speed="13.89" length="186.40" shape="113.60,-8.00 300.00,-8.00"/>
        <lane id="E2_1" index="1" speed="13.89" length="186.40" shape="113.60,-4.80 300.00,-4.80"/>
        <lane id="E2_2" index="2" speed="13.89" length="186.40" shape="113.60,-1.60 300.00,-1.60"/>
    </edge>
    <edge id="E3" from="J6" to="J4" priority="-1" spreadType="center" shape="95.20,200.12 95.20,0.00">
        <lane id="E3_0" index="0" speed="13.89" length="186.40" shape="92.00,200.00 92.00,13.60"/>
        <lane id="E3_1" index="1" speed="13.89" length="186.40" shape="95.20,200.00 95.20,13.60"/>
        <lane id="E3_2" index="2" speed="13.89" length="186.40" shape="98.40,200.00 98.40,13.60"/>
    </edge>
    <edge id="E4" from="J4" to="J7" priority="-1" spreadType="center" shape="95.20,-0.00 95.20,-200.12">
        <lane id="E4_0" index="0" speed="13.89" length="186.40" shape="92.00,-13.60 92.00,-200.00"/>
        <lane id="E4_1" index="1" speed="13.89" length="186.40" shape="95.20,-13.60 95.20,-200.00"/>
        <lane id="E4_2" index="2" speed="13.89" length="186.40" shape="98.40,-13.60 98.40,-200.00"/>
    </edge>

    <tlLogic id="J4" type="static" programID="0" offset="0">
        <phase duration="33" state="GGGGrrGGGGrr"/>
        <phase duration="3"  state="yygyrryygyrr"/>
        <phase duration="6"  state="rrGrrrrrGrrr"/>
        <phase duration="3"  state="rryrrrrryrrr"/>
        <phase duration="33" state="GrrGGgGrrGGg"/>
        <phase duration="3"  state="yrryyGyrryyG"/>
        <phase duration="6"  state="rrrrrGrrrrrG"/>
        <phase duration="3"  state="rrrrryrrrrry"/>
    </tlLogic>

    <junction id="J3" type="dead_end" x="-100.00" y="0.00" incLanes="-E1_0 -E1_1 -E1_2" intLanes="" shape="-100.00,0.00 -100.00,9.60 -100.00,-0.00"/>
    <junction id="J4" type="traffic_light" x="100.00" y="0.00" incLanes="E3_0 E3_1 E3_2 -E2_0 -E2_1 -E2_2 -E4_0 -E4_1 -E4_2 E1_0 E1_1 E1_2" intLanes=":J4_0_0 :J4_1_0 :J4_12_0 :J4_3_0 :J4_4_0 :J4_13_0 :J4_6_0 :J4_7_0 :J4_14_0 :J4_9_0 :J4_10_0 :J4_15_0" shape="90.40,13.60 109.60,13.60 110.04,11.38 110.60,10.60 111.38,10.04 112.38,9.71 113.60,9.60 113.60,-9.60 111.38,-10.04 110.60,-10.60 110.04,-11.38 109.71,-12.38 109.60,-13.60 90.40,-13.60 89.96,-11.38 89.40,-10.60 88.62,-10.04 87.62,-9.71 86.40,-9.60 86.40,9.60 88.62,10.04 89.40,10.60 89.96,11.38 90.29,12.38">
        <request index="0"  response="000000000000" foes="000000000000" cont="0"/>
        <request index="1"  response="100000000000" foes="110100010000" cont="0"/>
        <request index="2"  response="100010100000" foes="100010110000" cont="1"/>
        <request index="3"  response="000000000000" foes="000000000000" cont="0"/>
        <request index="4"  response="000010000110" foes="100010000110" cont="0"/>
        <request index="5"  response="010110000100" foes="010110000100" cont="1"/>
        <request index="6"  response="000000000000" foes="000000000000" cont="0"/>
        <request index="7"  response="000000100000" foes="010000110100" cont="0"/>
        <request index="8"  response="100000100010" foes="110000100010" cont="1"/>
        <request index="9"  response="000000000000" foes="000000000000" cont="0"/>
        <request index="10" response="000110000010" foes="000110100010" cont="0"/>
        <request index="11" response="000100010110" foes="000100010110" cont="1"/>
    </junction>
    <junction id="J5" type="dead_end" x="300.00" y="0.00" incLanes="E2_0 E2_1 E2_2" intLanes="" shape="300.00,-0.00 300.00,-9.60 300.00,0.00"/>
    <junction id="J6" type="dead_end" x="100.00" y="200.00" incLanes="-E3_0 -E3_1 -E3_2" intLanes="" shape="100.00,200.00 109.60,200.00 100.00,200.00"/>
    <junction id="J7" type="dead_end" x="100.00" y="-200.00" incLanes="E4_0 E4_1 E4_2" intLanes="" shape="100.00,-200.00 90.40,-200.00 100.00,-200.00"/>

    <junction id=":J4_12_0" type="internal" x="102.10" y="2.36" incLanes=":J4_2_0 -E4_1" intLanes=":J4_4_0 :J4_5_0 :J4_7_0 :J4_11_0"/>
    <junction id=":J4_13_0" type="internal" x="102.36" y="-2.10" incLanes=":J4_5_0 E1_1" intLanes=":J4_2_0 :J4_7_0 :J4_8_0 :J4_10_0"/>
    <junction id=":J4_14_0" type="internal" x="97.90" y="-2.36" incLanes=":J4_8_0 E3_1" intLanes=":J4_1_0 :J4_5_0 :J4_10_0 :J4_11_0"/>
    <junction id=":J4_15_0" type="internal" x="97.64" y="2.10" incLanes=":J4_11_0 -E2_1" intLanes=":J4_1_0 :J4_2_0 :J4_4_0 :J4_8_0"/>

    <connection from="-E2" to="-E3" fromLane="0" toLane="0" via=":J4_3_0" tl="J4" linkIndex="3" dir="r" state="O"/>
    <connection from="-E2" to="-E1" fromLane="1" toLane="1" via=":J4_4_0" tl="J4" linkIndex="4" dir="s" state="o"/>
    <connection from="-E2" to="E4" fromLane="2" toLane="2" via=":J4_5_0" tl="J4" linkIndex="5" dir="l" state="o"/>
    <connection from="-E4" to="E2" fromLane="0" toLane="0" via=":J4_6_0" tl="J4" linkIndex="6" dir="r" state="O"/>
    <connection from="-E4" to="-E3" fromLane="1" toLane="1" via=":J4_7_0" tl="J4" linkIndex="7" dir="s" state="O"/>
    <connection from="-E4" to="-E1" fromLane="2" toLane="2" via=":J4_8_0" tl="J4" linkIndex="8" dir="l" state="o"/>
    <connection from="E1" to="E4" fromLane="0" toLane="0" via=":J4_9_0" tl="J4" linkIndex="9" dir="r" state="O"/>
    <connection from="E1" to="E2" fromLane="1" toLane="1" via=":J4_10_0" tl="J4" linkIndex="10" dir="s" state="o"/>
    <connection from="E1" to="-E3" fromLane="2" toLane="2" via=":J4_11_0" tl="J4" linkIndex="11" dir="l" state="o"/>
    <connection from="E3" to="-E1" fromLane="0" toLane="0" via=":J4_0_0" tl="J4" linkIndex="0" dir="r" state="O"/>
    <connection from="E3" to="E4" fromLane="1" toLane="1" via=":J4_1_0" tl="J4" linkIndex="1" dir="s" state="O"/>
    <connection from="E3" to="E2" fromLane="2" toLane="2" via=":J4_2_0" tl="J4" linkIndex="2" dir="l" state="o"/>

    <connection from=":J4_0" to="-E1" fromLane="0" toLane="0" dir="r" state="M"/>
    <connection from=":J4_1" to="E4" fromLane="0" toLane="1" dir="s" state="M"/>
    <connection from=":J4_2" to="E2" fromLane="0" toLane="2" via=":J4_12_0" dir="l" state="m"/>
    <connection from=":J4_12" to="E2" fromLane="0" toLane="2" dir="l" state="M"/>
    <connection from=":J4_3" to="-E3" fromLane="0" toLane="0" dir="r" state="M"/>
    <connection from=":J4_4" to="-E1" fromLane="0" toLane="1" dir="s" state="M"/>
    <connection from=":J4_5" to="E4" fromLane="0" toLane="2" via=":J4_13_0" dir="l" state="m"/>
    <connection from=":J4_13" to="E4" fromLane="0" toLane="2" dir="l" state="M"/>
    <connection from=":J4_6" to="E2" fromLane="0" toLane="0" dir="r" state="M"/>
    <connection from=":J4_7" to="-E3" fromLane="0" toLane="1" dir="s" state="M"/>
    <connection from=":J4_8" to="-E1" fromLane="0" toLane="2" via=":J4_14_0" dir="l" state="m"/>
    <connection from=":J4_14" to="-E1" fromLane="0" toLane="2" dir="l" state="M"/>
    <connection from=":J4_9" to="E4" fromLane="0" toLane="0" dir="r" state="M"/>
    <connection from=":J4_10" to="E2" fromLane="0" toLane="1" dir="s" state="M"/>
    <connection from=":J4_11" to="-E3" fromLane="0" toLane="2" via=":J4_15_0" dir="l" state="m"/>
    <connection from=":J4_15" to="-E3" fromLane="0" toLane="2" dir="l" state="M"/>

</net>
