<?xml version="1.0" encoding="UTF-8"?>

<!-- generated on 2024-06-25 17:27:39 by Eclipse SUMO netedit Version 1.19.0
-->

<routes xmlns:xsi="http://www.w3.org/2001/XMLSchema-instance" xsi:noNamespaceSchemaLocation="http://sumo.dlr.de/xsd/routes_file.xsd">
    <!-- Vehicles, persons and containers (sorted by depart) -->
    <flow id="f_0" begin="0.00" from="-E2" to="-E3" end="3600.00" number="1800"/>
    <flow id="f_1" begin="0.00" from="-E2" to="-E1" end="3600.00" number="1800"/>
    <flow id="f_2" begin="0.00" from="-E2" to="E4" end="3600.00" number="1800"/>
    <flow id="f_3" begin="0.00" from="E1" to="-E3" end="3600.00" number="1800"/>
    <flow id="f_4" begin="0.00" from="E1" to="E2" end="3600.00" number="1800"/>
    <flow id="f_5" begin="0.00" from="E1" to="E4" end="3600.00" number="1800"/>
</routes>
