<?xml version="1.0" encoding="UTF-8"?>

<!-- generated on 2024-07-12 10:32:19 by Eclipse SUMO sumo Version 1.19.0
-->

<configuration xmlns:xsi="http://www.w3.org/2001/XMLSchema-instance" xsi:noNamespaceSchemaLocation="http://sumo.dlr.de/xsd/sumoConfiguration.xsd">

    <input>
        <net-file value="vehicleControlNet.net.xml"/>
        <route-files value="vehicleControlNet.rou.xml"/>
    </input>

</configuration>
