<?xml version="1.0" encoding="UTF-8"?>

<!-- generated on 2024-07-12 10:32:19 by Eclipse SUMO netedit Version 1.19.0
-->

<routes xmlns:xsi="http://www.w3.org/2001/XMLSchema-instance" xsi:noNamespaceSchemaLocation="http://sumo.dlr.de/xsd/routes_file.xsd">
    <!-- Routes -->
    <route id="default" edges="-E1 -E0" />
    <route id="r_1" edges="-E1 E2 E3 E5"/>
</routes>
